Version 4.1
SHEET 1 880 900
WIRE 48 -32 -480 -32
WIRE 224 -32 48 -32
WIRE 336 -32 224 -32
WIRE 832 -32 832 -48
WIRE 832 -32 336 -32
WIRE 48 64 48 -32
WIRE 224 64 224 -32
WIRE 48 128 -64 128
WIRE 224 128 48 128
WIRE 224 224 48 224
WIRE 336 224 336 -32
WIRE 336 224 224 224
WIRE -480 256 -480 -32
WIRE -64 288 -64 128
WIRE 48 288 -64 288
WIRE 224 288 48 288
WIRE 224 384 48 384
WIRE 336 384 336 224
WIRE 336 384 224 384
WIRE -64 448 -64 288
WIRE 48 448 -64 448
WIRE 224 448 48 448
WIRE -480 464 -480 336
WIRE 224 544 48 544
WIRE 336 544 336 384
WIRE 336 544 224 544
WIRE -64 608 -64 448
WIRE 48 608 -64 608
WIRE 224 608 48 608
WIRE 224 704 48 704
WIRE 336 704 336 544
WIRE 336 704 224 704
WIRE -480 864 -480 544
WIRE -64 864 -64 608
WIRE -64 864 -480 864
WIRE 48 864 48 768
WIRE 48 864 -64 864
WIRE 224 864 224 768
WIRE 224 864 48 864
WIRE 832 864 224 864
WIRE 832 896 832 864
SYMBOL LM324 48 32 R0
SYMATTR InstName U1
SYMBOL LM324 224 32 R0
SYMATTR InstName U2
SYMBOL LM324 48 192 R0
SYMATTR InstName U3
SYMBOL LM324 224 192 R0
SYMATTR InstName U4
SYMBOL LM324 48 352 R0
SYMATTR InstName U5
SYMBOL LM324 224 352 R0
SYMATTR InstName U6
SYMBOL LM324 48 512 R0
SYMATTR InstName U7
SYMBOL LM324 224 512 R0
SYMATTR InstName U8
SYMBOL LM324 48 672 R0
SYMATTR InstName U9
SYMBOL LM324 224 672 R0
SYMATTR InstName U10
SYMBOL lib\\sym\\Misc\\battery -480 240 R0
SYMATTR InstName V1
SYMBOL lib\\sym\\Misc\\battery -480 448 R0
SYMATTR InstName V2
