Version 4.1
SHEET 1 880 680
WIRE 96 -96 -352 -96
WIRE 144 -96 96 -96
WIRE 320 -96 144 -96
WIRE 96 -48 96 -96
WIRE -224 0 -256 0
WIRE -112 0 -144 0
WIRE -352 32 -352 -96
WIRE 96 80 96 32
WIRE 144 144 144 -96
WIRE -352 160 -352 112
WIRE -320 160 -352 160
WIRE -224 160 -256 160
WIRE -112 160 -144 160
WIRE -32 160 -32 0
WIRE 96 160 96 80
WIRE 96 160 -32 160
WIRE 112 160 96 160
WIRE 320 160 320 -96
WIRE 176 176 176 80
WIRE 288 176 176 176
WIRE 64 192 -32 192
WIRE 112 192 64 192
WIRE 512 192 352 192
WIRE -352 208 -352 160
WIRE 288 208 240 208
WIRE 240 272 240 208
WIRE -224 320 -256 320
WIRE -112 320 -144 320
WIRE -32 320 -32 192
WIRE -352 384 -352 288
WIRE 144 384 144 208
WIRE 144 384 -352 384
FLAG -320 160 0
FLAG 64 272 0
FLAG -256 320 0
FLAG -256 160 0
FLAG -256 0 0
FLAG 320 224 0
FLAG 240 272 0
SYMBOL res -16 -16 R90
WINDOW 0 0 56 VBottom 2
WINDOW 3 32 56 VTop 2
SYMATTR InstName R1
SYMATTR Value 20000
SYMBOL res -16 144 R90
WINDOW 0 0 56 VBottom 2
WINDOW 3 32 56 VTop 2
SYMATTR InstName R2
SYMATTR Value 10000
SYMBOL res -16 304 R90
WINDOW 0 0 56 VBottom 2
WINDOW 3 32 56 VTop 2
SYMATTR InstName R3
SYMATTR Value 5000
SYMBOL res 192 64 R90
WINDOW 0 0 56 VBottom 2
WINDOW 3 32 56 VTop 2
SYMATTR InstName R4
SYMATTR Value 10000
SYMBOL voltage -128 0 R90
WINDOW 0 -32 56 VBottom 2
WINDOW 3 32 56 Invisible 2
WINDOW 123 0 0 Left 0
WINDOW 39 0 0 Left 0
SYMATTR InstName V1
SYMATTR Value PULSE(0 12 0 1u 1u 0.75 1)
SYMBOL voltage -128 160 R90
WINDOW 0 -32 56 VBottom 2
WINDOW 3 32 56 Invisible 2
WINDOW 123 0 0 Left 0
WINDOW 39 0 0 Left 0
SYMATTR InstName V2
SYMATTR Value PULSE(0 -12 0 1u 1u 0.5 1)
SYMBOL voltage -128 320 R90
WINDOW 0 -32 56 VBottom 2
WINDOW 3 32 56 Invisible 2
WINDOW 123 0 0 Left 0
WINDOW 39 0 0 Left 0
SYMATTR InstName V3
SYMATTR Value PULSE(0 12 0 1u 1u 0.25 1)
SYMBOL Misc\\battery -352 16 R0
WINDOW 123 0 0 Left 0
WINDOW 39 0 0 Left 0
SYMATTR InstName V4
SYMATTR Value 12
SYMBOL Misc\\battery -352 192 R0
WINDOW 123 0 0 Left 0
WINDOW 39 0 0 Left 0
SYMATTR InstName V5
SYMATTR Value 12
SYMBOL OpAmps\\opamp2 144 112 R0
SYMATTR InstName U3
SYMATTR Value LM324
SYMBOL OpAmps\\opamp2 320 128 R0
SYMATTR InstName U1
SYMATTR Value LM324
SYMBOL res 48 176 R0
SYMATTR InstName R9
SYMATTR Value 10000
SYMBOL res 112 48 R180
WINDOW 0 36 76 Left 2
WINDOW 3 36 40 Left 2
SYMATTR InstName R5
SYMATTR Value 5000
TEXT -480 400 Left 2 !.tran 0 2 0 0.00001
TEXT -248 400 Left 2 !.include LM324.lib
